! user_nl_clm namelist options written by PTCLMmkdata:
! ../PTCLMmkdata --verbose --cycle_forcing --cesm_root $CESMROOTDIR -s TS-Ts1 -d $DIN_LOC_ROOT --debug --sdate 140204 --map_gdate 140204 --mydatadir testing_dir/cycling__file_creation 
 fsurdat = '/glade/p/work/erik/clm_clean_trunk/components/clm/tools/PTCLM/test/testing_dir/cycling__file_creation/1x1pt_TS-Ts1/surfdata_1x1pt_TS-Ts1140204_simyr2000_140204.nc'
 hist_nhtfrq = 0
 hist_mfilt  = 1200
