! user_nl_clm namelist options written by PTCLMmkdata:
! ../PTCLMmkdata --mksurfdata_opts=-no_crop  --verbose --cycle_forcing --cesm_root ../../../../.. -s TS-Ts3 -d /glade/p/cesmdata/cseg/inputdata --debug --sdate 140204 --map_gdate 140204 --mydatadir testing_dir/cycling_file_creation 
 fsurdat = '/glade/p/work/erik/clm_clean_trunk/components/clm/tools/PTCLM/test/testing_dir/cycling_file_creation/1x1pt_TS-Ts3/surfdata_1x1pt_TS-Ts3140204_simyr2000_140204.nc'
 hist_nhtfrq = 0
 hist_mfilt  = 1200
